<?xml version="1.0" encoding="UTF-8"?>

<!-- generated on 01/16/23 16:33:40 by SUMO netconvert Version 0.32.0
<?xml version="1.0" encoding="UTF-8"?>

<configuration xmlns:xsi="http://www.w3.org/2001/XMLSchema-instance" xsi:noNamespaceSchemaLocation="http://sumo.dlr.de/xsd/netconvertConfiguration.xsd">

    <input>
        <type-files value="C:\Program%20Files%20(x86)\DLR\Sumo\data\typemap\osmNetconvert.typ.xml,C:\Program%20Files%20(x86)\DLR\Sumo\data\typemap\osmNetconvertUrbanDe.typ.xml,C:\Program%20Files%20(x86)\DLR\Sumo\data\typemap\osmNetconvertPedestrians.typ.xml,C:\Program%20Files%20(x86)\DLR\Sumo\data\typemap\osmNetconvertBicycle.typ.xml"/>
        <osm-files value="osm_bbox.osm.xml"/>
    </input>

    <output>
        <output-file value="C:\Users\dxy\Sumo\2023-01-16-16-33-24\osm.net.xml"/>
        <output.street-names value="true"/>
        <output.original-names value="true"/>
    </output>

    <projection>
        <proj.utm value="true"/>
    </projection>

    <tls_building>
        <tls.discard-simple value="true"/>
        <tls.join value="true"/>
        <tls.guess-signals value="true"/>
        <tls.default-type value="actuated"/>
    </tls_building>

    <ramp_guessing>
        <ramps.guess value="true"/>
    </ramp_guessing>

    <processing>
        <geometry.remove value="true"/>
        <roundabouts.guess value="true"/>
        <junctions.join value="true"/>
        <junctions.corner-detail value="5"/>
        <crossings.guess value="true"/>
    </processing>

    <report>
        <verbose value="true"/>
    </report>

</configuration>
-->

<net version="0.27" junctionCornerDetail="5" walkingareas="true" xmlns:xsi="http://www.w3.org/2001/XMLSchema-instance" xsi:noNamespaceSchemaLocation="http://sumo.dlr.de/xsd/net_file.xsd">

    <location netOffset="-382451.16,-3947115.79" convBoundary="0.00,0.00,1812.69,7632.58" origBoundary="139.700667,35.660916,139.720723,35.729842" projParameter="+proj=utm +zone=54 +ellps=WGS84 +datum=WGS84 +units=m +no_defs"/>

    <type id="cycleway.lane" allow="bicycle" bikeLaneWidth="1.00"/>
    <type id="cycleway.opposite_lane" allow="bicycle" bikeLaneWidth="1.00"/>
    <type id="cycleway.opposite_track" allow="bicycle" bikeLaneWidth="1.50"/>
    <type id="cycleway.track" allow="bicycle" bikeLaneWidth="1.50"/>
    <type id="highway.bridleway" priority="1" numLanes="1" speed="2.78" allow="pedestrian" oneway="1" width="2.00"/>
    <type id="highway.bus_guideway" priority="1" numLanes="1" speed="8.33" allow="bus" oneway="1"/>
    <type id="highway.cycleway" priority="1" numLanes="1" speed="5.56" allow="bicycle" oneway="0" width="1.00"/>
    <type id="highway.footway" priority="1" numLanes="1" speed="2.78" allow="pedestrian" oneway="1" width="2.00"/>
    <type id="highway.ford" priority="1" numLanes="1" speed="2.78" allow="army" oneway="0"/>
    <type id="highway.living_street" priority="3" numLanes="1" speed="2.78" disallow="tram rail_urban rail rail_electric ship" oneway="0"/>
    <type id="highway.motorway" priority="13" numLanes="2" speed="27.78" allow="private emergency authority army vip passenger hov taxi bus coach delivery truck trailer motorcycle evehicle custom1 custom2" oneway="1"/>
    <type id="highway.motorway_link" priority="12" numLanes="1" speed="16.67" allow="private emergency authority army vip passenger hov taxi bus coach delivery truck trailer motorcycle evehicle custom1 custom2" oneway="1"/>
    <type id="highway.path" priority="1" numLanes="1" speed="2.78" allow="bicycle pedestrian" oneway="1" width="2.00"/>
    <type id="highway.pedestrian" priority="1" numLanes="1" speed="2.78" allow="pedestrian" oneway="1" width="2.00"/>
    <type id="highway.primary" priority="9" numLanes="2" speed="13.89" disallow="tram rail_urban rail rail_electric pedestrian ship" oneway="0" sidewalkWidth="3.00"/>
    <type id="highway.primary_link" priority="8" numLanes="1" speed="13.89" disallow="tram rail_urban rail rail_electric pedestrian ship" oneway="0" sidewalkWidth="3.00"/>
    <type id="highway.raceway" priority="14" numLanes="2" speed="83.33" allow="vip" oneway="0"/>
    <type id="highway.residential" priority="4" numLanes="1" speed="13.89" disallow="tram rail_urban rail rail_electric pedestrian ship" oneway="0" sidewalkWidth="2.00"/>
    <type id="highway.secondary" priority="7" numLanes="2" speed="13.89" disallow="tram rail_urban rail rail_electric pedestrian ship" oneway="0" sidewalkWidth="3.00"/>
    <type id="highway.secondary_link" priority="6" numLanes="1" speed="13.89" disallow="tram rail_urban rail rail_electric pedestrian ship" oneway="0" sidewalkWidth="3.00"/>
    <type id="highway.service" priority="2" numLanes="1" speed="5.56" allow="delivery bicycle pedestrian" oneway="0"/>
    <type id="highway.services" priority="1" numLanes="1" speed="8.33" disallow="tram rail_urban rail rail_electric ship" oneway="0"/>
    <type id="highway.stairs" priority="1" numLanes="1" speed="1.39" allow="pedestrian" oneway="1" width="2.00"/>
    <type id="highway.step" priority="1" numLanes="1" speed="1.39" allow="pedestrian" oneway="1" width="2.00"/>
    <type id="highway.steps" priority="1" numLanes="1" speed="1.39" allow="pedestrian" oneway="1" width="2.00"/>
    <type id="highway.tertiary" priority="6" numLanes="1" speed="13.89" disallow="tram rail_urban rail rail_electric pedestrian ship" oneway="0" sidewalkWidth="3.00"/>
    <type id="highway.tertiary_link" priority="5" numLanes="1" speed="13.89" disallow="tram rail_urban rail rail_electric pedestrian ship" oneway="0" sidewalkWidth="2.00"/>
    <type id="highway.track" priority="1" numLanes="1" speed="5.56" disallow="tram rail_urban rail rail_electric ship" oneway="0"/>
    <type id="highway.trunk" priority="11" numLanes="2" speed="13.89" disallow="tram rail_urban rail rail_electric bicycle pedestrian ship" oneway="0"/>
    <type id="highway.trunk_link" priority="10" numLanes="1" speed="13.89" disallow="tram rail_urban rail rail_electric bicycle pedestrian ship" oneway="0"/>
    <type id="highway.unclassified" priority="5" numLanes="1" speed="13.89" disallow="tram rail_urban rail rail_electric pedestrian ship" oneway="0" sidewalkWidth="2.00"/>
    <type id="highway.unsurfaced" priority="1" numLanes="1" speed="8.33" disallow="tram rail_urban rail rail_electric ship" oneway="0"/>
    <type id="railway.light_rail" priority="15" numLanes="1" speed="27.78" allow="rail_urban" oneway="1"/>
    <type id="railway.preserved" priority="15" numLanes="1" speed="27.78" allow="rail" oneway="1"/>
    <type id="railway.rail" priority="15" numLanes="1" speed="83.33" allow="rail rail_electric" oneway="1"/>
    <type id="railway.subway" priority="15" numLanes="1" speed="27.78" allow="rail_urban" oneway="1"/>
    <type id="railway.tram" priority="15" numLanes="1" speed="13.89" allow="tram" oneway="1"/>

    <edge id=":10286798962_w0" function="walkingarea">
        <lane id=":10286798962_w0_0" index="0" allow="pedestrian" speed="1.00" length="4.25" width="2.00" shape="1202.54,4584.40 1201.70,4582.59 1199.01,4581.65 1197.48,4582.94 1197.06,4585.12 1198.31,4586.68 1201.60,4584.82 1200.89,4585.11 1200.31,4585.36 1199.75,4585.65 1199.12,4586.07"/>
    </edge>
    <edge id=":1094262553_0" function="internal">
        <lane id=":1094262553_0_0" index="0" disallow="tram rail_urban rail rail_electric pedestrian ship" speed="13.89" length="13.70" shape="933.56,4944.43 919.94,4945.85"/>
    </edge>
    <edge id=":1094262553_1" function="internal">
        <lane id=":1094262553_1_0" index="0" disallow="tram rail_urban rail rail_electric pedestrian ship" speed="13.89" length="5.73" shape="933.56,4944.43 929.98,4944.25 928.05,4943.30"/>
    </edge>
    <edge id=":1094262553_2" function="internal">
        <lane id=":1094262553_2_0" index="0" disallow="tram rail_urban rail rail_electric pedestrian ship" speed="13.89" length="2.41" shape="933.56,4944.43 932.24,4943.74 931.75,4942.96"/>
    </edge>
    <edge id=":1094262553_9" function="internal">
        <lane id=":1094262553_9_0" index="0" speed="13.89" length="8.06" shape="928.05,4943.30 927.20,4942.88 925.23,4940.34 924.07,4936.61"/>
    </edge>
    <edge id=":1094262553_10" function="internal">
        <lane id=":1094262553_10_0" index="0" speed="13.89" length="2.41" shape="931.75,4942.96 932.08,4942.09 933.22,4941.15"/>
    </edge>
    <edge id=":1094262553_3" function="internal">
        <lane id=":1094262553_3_0" index="0" disallow="tram rail_urban rail rail_electric pedestrian ship" speed="13.89" length="8.76" shape="927.32,4936.03 928.06,4938.46 929.29,4940.12 931.01,4941.02 933.22,4941.15"/>
    </edge>
    <edge id=":1094262553_4" function="internal">
        <lane id=":1094262553_4_0" index="0" disallow="tram rail_urban rail rail_electric pedestrian ship" speed="13.89" length="14.24" shape="927.32,4936.03 927.44,4939.97 926.26,4942.92 923.75,4944.88 919.94,4945.85"/>
    </edge>
    <edge id=":1094262553_5" function="internal">
        <lane id=":1094262553_5_0" index="0" disallow="tram rail_urban rail rail_electric pedestrian ship" speed="13.89" length="4.82" shape="927.32,4936.03 926.72,4937.40 925.98,4937.95 925.10,4937.68 924.07,4936.61"/>
    </edge>
    <edge id=":1094262553_6" function="internal">
        <lane id=":1094262553_6_0" index="0" disallow="tram rail_urban rail rail_electric pedestrian ship" speed="13.89" length="4.32" shape="919.59,4942.57 921.90,4941.98 923.42,4940.79"/>
    </edge>
    <edge id=":1094262553_7" function="internal">
        <lane id=":1094262553_7_0" index="0" disallow="tram rail_urban rail rail_electric pedestrian ship" speed="13.89" length="13.71" shape="919.59,4942.57 933.22,4941.15"/>
    </edge>
    <edge id=":1094262553_8" function="internal">
        <lane id=":1094262553_8_0" index="0" disallow="tram rail_urban rail rail_electric pedestrian ship" speed="13.89" length="2.41" shape="919.59,4942.57 920.90,4943.26 921.40,4944.04"/>
    </edge>
    <edge id=":1094262553_11" function="internal">
        <lane id=":1094262553_11_0" index="0" speed="13.89" length="4.32" shape="923.42,4940.79 924.14,4939.00 924.07,4936.61"/>
    </edge>
    <edge id=":1094262553_12" function="internal">
        <lane id=":1094262553_12_0" index="0" speed="13.89" length="2.41" shape="921.40,4944.04 921.08,4944.90 919.94,4945.85"/>
    </edge>
    <edge id=":1094262553_c0" function="crossing" crossingEdges="-94131616#4 94131616#4">
        <lane id=":1094262553_c0_0" index="0" allow="pedestrian" speed="1.00" length="6.50" width="4.00" shape="931.07,4939.76 931.73,4946.23"/>
    </edge>
    <edge id=":1094262553_c1" function="crossing" crossingEdges="94131611#0 -94131611#0">
        <lane id=":1094262553_c1_0" index="0" allow="pedestrian" speed="1.00" length="6.50" width="4.00" shape="922.84,4938.86 929.24,4937.72"/>
    </edge>
    <edge id=":1094262553_c2" function="crossing" crossingEdges="94131616#5 -94131616#5">
        <lane id=":1094262553_c2_0" index="0" allow="pedestrian" speed="1.00" length="6.50" width="4.00" shape="922.09,4947.23 921.41,4940.77"/>
    </edge>
    <edge id=":1094262553_w0" function="walkingarea">
        <lane id=":1094262553_w0_0" index="0" allow="pedestrian" speed="1.00" length="8.57" width="4.00" shape="924.08,4947.02 920.12,4947.54 920.33,4949.53 933.93,4948.11 933.73,4946.12 933.72,4946.02 929.74,4946.43"/>
    </edge>
    <edge id=":1094262553_w1" function="walkingarea">
        <lane id=":1094262553_w1_0" index="0" allow="pedestrian" speed="1.00" length="3.26" width="4.00" shape="933.05,4939.46 932.85,4937.47 930.96,4935.39 928.99,4935.74 929.21,4937.01 929.68,4938.02 930.30,4938.78 931.07,4939.29 931.99,4939.55"/>
    </edge>
    <edge id=":1094262553_w2" function="walkingarea">
        <lane id=":1094262553_w2_0" index="0" allow="pedestrian" speed="1.00" length="2.97" width="4.00" shape="922.49,4936.89 922.39,4936.91 920.42,4937.26 919.19,4938.89 919.41,4940.88 920.54,4940.76 921.42,4940.35 922.05,4939.76 922.44,4938.99 922.59,4938.03"/>
    </edge>
    <edge id=":1094262566_0" function="internal">
        <lane id=":1094262566_0_0" index="0" allow="delivery bicycle pedestrian" speed="5.56" length="4.82" shape="1114.26,4513.94 1115.43,4514.87 1115.78,4515.72 1115.30,4516.51 1114.00,4517.23"/>
    </edge>
    <edge id=":1094262569_0" function="internal">
        <lane id=":1094262569_0_0" index="0" disallow="tram rail_urban rail rail_electric pedestrian ship" speed="13.89" length="12.79" shape="966.04,4875.33 962.39,4876.34 959.90,4877.10 957.47,4878.03 954.00,4879.57"/>
    </edge>
    <edge id=":1094262569_1" function="internal">
        <lane id=":1094262569_1_0" index="0" disallow="tram rail_urban rail rail_electric pedestrian ship" speed="13.89" length="6.06" shape="966.04,4875.33 962.04,4875.85 960.10,4875.26"/>
    </edge>
    <edge id=":1094262569_2" function="internal">
        <lane id=":1094262569_2_0" index="0" disallow="tram rail_urban rail rail_electric pedestrian ship" speed="13.89" length="2.41" shape="966.04,4875.33 964.63,4874.87 964.01,4874.18"/>
    </edge>
    <edge id=":1094262569_9" function="internal">
        <lane id=":1094262569_9_0" index="0" speed="13.89" length="8.44" shape="960.10,4875.26 958.96,4874.91 956.80,4872.53 955.56,4868.69"/>
    </edge>
    <edge id=":1094262569_10" function="internal">
        <lane id=":1094262569_10_0" index="0" speed="13.89" length="2.41" shape="964.01,4874.18 964.19,4873.28 965.16,4872.15"/>
    </edge>
    <edge id=":1094262569_3" function="internal">
        <lane id=":1094262569_3_0" index="0" disallow="tram rail_urban rail rail_electric pedestrian ship" speed="13.89" length="8.77" shape="958.82,4868.13 959.57,4870.46 960.87,4871.90 962.74,4872.46 965.16,4872.15"/>
    </edge>
    <edge id=":1094262569_4" function="internal">
        <lane id=":1094262569_4_0" index="0" disallow="tram rail_urban rail rail_electric pedestrian ship" speed="13.89" length="13.45" shape="958.82,4868.13 959.07,4872.07 958.35,4875.28 956.66,4877.78 954.00,4879.57"/>
    </edge>
    <edge id=":1094262569_5" function="internal">
        <lane id=":1094262569_5_0" index="0" disallow="tram rail_urban rail rail_electric pedestrian ship" speed="13.89" length="4.82" shape="958.82,4868.13 958.21,4869.49 957.47,4870.04 956.59,4869.77 955.56,4868.69"/>
    </edge>
    <edge id=":1094262569_6" function="internal">
        <lane id=":1094262569_6_0" index="0" disallow="tram rail_urban rail rail_electric pedestrian ship" speed="13.89" length="4.99" shape="952.64,4876.56 954.31,4875.39 955.35,4873.69 955.53,4872.75"/>
    </edge>
    <edge id=":1094262569_7" function="internal">
        <lane id=":1094262569_7_0" index="0" disallow="tram rail_urban rail rail_electric pedestrian ship" speed="13.89" length="13.30" shape="952.64,4876.56 956.24,4874.96 958.77,4874.00 961.35,4873.21 965.16,4872.15"/>
    </edge>
    <edge id=":1094262569_8" function="internal">
        <lane id=":1094262569_8_0" index="0" disallow="tram rail_urban rail rail_electric pedestrian ship" speed="13.89" length="2.41" shape="952.64,4876.56 954.11,4876.80 954.82,4877.38"/>
    </edge>
    <edge id=":1094262569_11" function="internal">
        <lane id=":1094262569_11_0" index="0" speed="13.89" length="4.09" shape="955.53,4872.75 955.77,4871.46 955.56,4868.69"/>
    </edge>
    <edge id=":1094262569_12" function="internal">
        <lane id=":1094262569_12_0" index="0" speed="13.89" length="2.41" shape="954.82,4877.38 954.79,4878.30 954.00,4879.57"/>
    </edge>
    <edge id=":1094262569_c0" function="crossing" crossingEdges="-94131617#2 94131617#2">
        <lane id=":1094262569_c0_0" index="0" allow="pedestrian" speed="1.00" length="6.50" width="4.00" shape="962.80,4871.15 964.55,4877.41"/>
    </edge>
    <edge id=":1094262569_c1" function="crossing" crossingEdges="94131619#0 -94131619#0">
        <lane id=":1094262569_c1_0" index="0" allow="pedestrian" speed="1.00" length="6.50" width="4.00" shape="954.32,4870.93 960.73,4869.84"/>
    </edge>
    <edge id=":1094262569_c2" function="crossing" crossingEdges="94131617#3 -94131617#3">
        <lane id=":1094262569_c2_0" index="0" allow="pedestrian" speed="1.00" length="6.50" width="4.00" shape="956.49,4880.20 953.80,4874.28"/>
    </edge>
    <edge id=":1094262569_w0" function="walkingarea">
        <lane id=":1094262569_w0_0" index="0" allow="pedestrian" speed="1.00" length="7.74" width="4.00" shape="954.71,4881.11 955.53,4882.93 967.04,4878.89 966.50,4876.97 963.90,4877.58 962.00,4878.12 960.45,4878.61 958.92,4879.17 957.10,4879.93"/>
    </edge>
    <edge id=":1094262569_w1" function="walkingarea">
        <lane id=":1094262569_w1_0" index="0" allow="pedestrian" speed="1.00" length="2.99" width="4.00" shape="964.73,4870.61 964.70,4870.51 964.16,4868.59 962.46,4867.51 960.49,4867.85 960.69,4868.99 961.16,4869.85 961.80,4870.44 962.61,4870.76 963.58,4870.82"/>
    </edge>
    <edge id=":1094262569_w2" function="walkingarea">
        <lane id=":1094262569_w2_0" index="0" allow="pedestrian" speed="1.00" length="3.76" width="4.00" shape="953.99,4868.96 953.89,4868.97 951.92,4869.31 951.11,4873.19 951.94,4875.01 952.82,4874.58 953.46,4873.85 953.90,4872.92 954.13,4871.80 954.16,4870.48"/>
    </edge>
    <edge id=":1094262593_0" function="internal">
        <lane id=":1094262593_0_0" index="0" disallow="tram rail_urban rail rail_electric pedestrian ship" speed="13.89" length="13.77" shape="1067.76,4906.75 1063.35,4893.70"/>
    </edge>
    <edge id=":1094262593_1" function="internal">
        <lane id=":1094262593_1_0" index="0" disallow="tram rail_urban rail rail_electric pedestrian ship" speed="13.89" length="6.11" shape="1067.76,4906.75 1067.04,4902.97 1067.53,4900.76"/>
    </edge>
    <edge id=":1094262593_2" function="internal">
        <lane id=":1094262593_2_0" index="0" disallow="tram rail_urban rail rail_electric pedestrian ship" speed="13.89" length="2.41" shape="1067.76,4906.75 1068.14,4905.31 1068.79,4904.65"/>
    </edge>
    <edge id=":1094262593_9" function="internal">
        <lane id=":1094262593_9_0" index="0" speed="13.89" length="7.87" shape="1067.53,4900.76 1067.73,4899.90 1069.81,4897.56 1073.30,4895.92"/>
    </edge>
    <edge id=":1094262593_10" function="internal">
        <lane id=":1094262593_10_0" index="0" speed="13.89" length="2.41" shape="1068.79,4904.65 1069.70,4904.78 1070.89,4905.68"/>
    </edge>
    <edge id=":1094262593_3" function="internal">
        <lane id=":1094262593_3_0" index="0" disallow="tram rail_urban rail rail_electric pedestrian ship" speed="13.89" length="8.52" shape="1074.26,4899.08 1072.13,4900.08 1070.86,4901.51 1070.45,4903.37 1070.89,4905.68"/>
    </edge>
    <edge id=":1094262593_4" function="internal">
        <lane id=":1094262593_4_0" index="0" disallow="tram rail_urban rail rail_electric pedestrian ship" speed="13.89" length="13.78" shape="1074.26,4899.08 1070.47,4899.69 1067.39,4898.99 1065.02,4897.00 1063.35,4893.70"/>
    </edge>
    <edge id=":1094262593_5" function="internal">
        <lane id=":1094262593_5_0" index="0" disallow="tram rail_urban rail rail_electric pedestrian ship" speed="13.89" length="4.82" shape="1074.26,4899.08 1072.83,4898.65 1072.20,4897.98 1072.36,4897.07 1073.30,4895.92"/>
    </edge>
    <edge id=":1094262593_6" function="internal">
        <lane id=":1094262593_6_0" index="0" disallow="tram rail_urban rail rail_electric pedestrian ship" speed="13.89" length="4.31" shape="1066.48,4892.66 1067.51,4894.68 1068.99,4895.90 1069.12,4895.93"/>
    </edge>
    <edge id=":1094262593_7" function="internal">
        <lane id=":1094262593_7_0" index="0" disallow="tram rail_urban rail rail_electric pedestrian ship" speed="13.89" length="13.74" shape="1066.48,4892.66 1070.89,4905.68"/>
    </edge>
    <edge id=":1094262593_8" function="internal">
        <lane id=":1094262593_8_0" index="0" disallow="tram rail_urban rail rail_electric pedestrian ship" speed="13.89" length="2.41" shape="1066.48,4892.66 1066.09,4894.10 1065.44,4894.75"/>
    </edge>
    <edge id=":1094262593_11" function="internal">
        <lane id=":1094262593_11_0" index="0" speed="13.89" length="4.25" shape="1069.12,4895.93 1070.92,4896.31 1073.30,4895.92"/>
    </edge>
    <edge id=":1094262593_12" function="internal">
        <lane id=":1094262593_12_0" index="0" speed="13.89" length="2.41" shape="1065.44,4894.75 1064.53,4894.62 1063.35,4893.70"/>
    </edge>
    <edge id=":1094262593_c0" function="crossing" crossingEdges="-94131613#0 94131613#0">
        <lane id=":1094262593_c0_0" index="0" allow="pedestrian" speed="1.00" length="6.50" width="4.00" shape="1071.75,4903.27 1065.60,4905.38"/>
    </edge>
    <edge id=":1094262593_c1" function="crossing" crossingEdges="-692236964 692236964">
        <lane id=":1094262593_c1_0" index="0" allow="pedestrian" speed="1.00" length="6.50" width="4.00" shape="1070.92,4894.97 1072.81,4901.19"/>
    </edge>
    <edge id=":1094262593_c2" function="crossing" crossingEdges="94131613#1 -94131613#1">
        <lane id=":1094262593_c2_0" index="0" allow="pedestrian" speed="1.00" length="6.50" width="4.00" shape="1062.47,4896.11 1068.63,4894.06"/>
    </edge>
    <edge id=":1094262593_w0" function="walkingarea">
        <lane id=":1094262593_w0_0" index="0" allow="pedestrian" speed="1.00" length="8.64" width="4.00" shape="1063.10,4898.00 1061.83,4894.21 1061.74,4894.24 1059.84,4894.87 1064.26,4907.95 1066.16,4907.30 1066.25,4907.27 1064.95,4903.49"/>
    </edge>
    <edge id=":1094262593_w1" function="walkingarea">
        <lane id=":1094262593_w1_0" index="0" allow="pedestrian" speed="1.00" length="2.96" width="4.00" shape="1072.40,4905.16 1072.49,4905.13 1074.38,4904.48 1075.33,4902.62 1074.75,4900.71 1074.72,4900.61 1073.68,4901.04 1072.90,4901.59 1072.38,4902.28 1072.13,4903.11 1072.13,4904.07"/>
    </edge>
    <edge id=":1094262593_w2" function="walkingarea">
        <lane id=":1094262593_w2_0" index="0" allow="pedestrian" speed="1.00" length="3.08" width="4.00" shape="1072.81,4894.30 1072.23,4892.38 1069.99,4891.49 1068.10,4892.13 1068.45,4893.15 1069.04,4893.90 1069.77,4894.40 1070.65,4894.65 1071.67,4894.64"/>
    </edge>
    <edge id=":1094262599_0" function="internal">
        <lane id=":1094262599_0_0" index="0" disallow="tram rail_urban rail rail_electric pedestrian ship" speed="13.89" length="8.30" shape="972.59,4878.81 971.63,4876.76 970.24,4875.48 968.42,4875.00 966.17,4875.29"/>
    </edge>
    <edge id=":1094262599_1" function="internal">
        <lane id=":1094262599_1_0" index="0" disallow="tram rail_urban rail rail_electric pedestrian ship" speed="13.89" length="10.72" shape="972.59,4878.81 971.80,4875.26 971.84,4872.48 972.69,4870.45 974.37,4869.18"/>
    </edge>
    <edge id=":1094262599_2" function="internal">
        <lane id=":1094262599_2_0" index="0" disallow="tram rail_urban rail rail_electric pedestrian ship" speed="13.89" length="4.82" shape="972.59,4878.81 973.02,4877.39 973.69,4876.75 974.60,4876.91 975.74,4877.85"/>
    </edge>
    <edge id=":1094262599_3" function="internal">
        <lane id=":1094262599_3_0" index="0" disallow="tram rail_urban rail rail_electric pedestrian ship" speed="13.89" length="1.97" shape="975.71,4872.20 975.15,4872.79 974.97,4873.93"/>
    </edge>
    <edge id=":1094262599_4" function="internal">
        <lane id=":1094262599_4_0" index="0" disallow="tram rail_urban rail rail_electric pedestrian ship" speed="13.89" length="10.04" shape="975.71,4872.20 972.95,4873.32 971.02,4873.98 969.05,4874.52 966.17,4875.29"/>
    </edge>
    <edge id=":1094262599_5" function="internal">
        <lane id=":1094262599_5_0" index="0" disallow="tram rail_urban rail rail_electric pedestrian ship" speed="13.89" length="2.52" shape="975.71,4872.20 974.24,4871.95 973.53,4871.36 973.54,4871.25"/>
    </edge>
    <edge id=":1094262599_9" function="internal">
        <lane id=":1094262599_9_0" index="0" speed="13.89" length="4.01" shape="974.97,4873.93 975.17,4875.62 975.74,4877.85"/>
    </edge>
    <edge id=":1094262599_10" function="internal">
        <lane id=":1094262599_10_0" index="0" speed="13.89" length="2.30" shape="973.54,4871.25 973.57,4870.44 974.37,4869.18"/>
    </edge>
    <edge id=":1094262599_6" function="internal">
        <lane id=":1094262599_6_0" index="0" disallow="tram rail_urban rail rail_electric pedestrian ship" speed="13.89" length="9.56" shape="965.28,4872.11 968.03,4871.38 969.90,4870.87 971.74,4870.25 974.37,4869.18"/>
    </edge>
    <edge id=":1094262599_7" function="internal">
        <lane id=":1094262599_7_0" index="0" disallow="tram rail_urban rail rail_electric pedestrian ship" speed="13.89" length="6.01" shape="965.28,4872.11 968.95,4871.63 971.18,4872.23"/>
    </edge>
    <edge id=":1094262599_8" function="internal">
        <lane id=":1094262599_8_0" index="0" disallow="tram rail_urban rail rail_electric pedestrian ship" speed="13.89" length="2.41" shape="965.28,4872.11 966.70,4872.58 967.32,4873.26"/>
    </edge>
    <edge id=":1094262599_11" function="internal">
        <lane id=":1094262599_11_0" index="0" speed="13.89" length="7.52" shape="971.18,4872.23 971.92,4872.43 974.18,4874.50 975.74,4877.85"/>
    </edge>
    <edge id=":1094262599_12" function="internal">
        <lane id=":1094262599_12_0" index="0" speed="13.89" length="2.41" shape="967.32,4873.26 967.14,4874.17 966.17,4875.29"/>
    </edge>
    <edge id=":1094262599_c0" function="crossing" crossingEdges="-94131617#1 94131617#1">
        <lane id=":1094262599_c0_0" index="0" allow="pedestrian" speed="1.00" length="6.50" width="4.00" shape="976.69,4875.47 970.47,4877.36"/>
    </edge>
    <edge id=":1094262599_c1" function="crossing" crossingEdges="94131615#0 -94131615#0">
        <lane id=":1094262599_c1_0" index="0" allow="pedestrian" speed="1.00" length="6.50" width="4.00" shape="971.90,4868.49 974.50,4874.45"/>
    </edge>
    <edge id=":1094262599_c2" function="crossing" crossingEdges="94131617#2 -94131617#2">
        <lane id=":1094262599_c2_0" index="0" allow="pedestrian" speed="1.00" length="6.50" width="4.00" shape="968.53,4876.30 966.78,4870.04"/>
    </edge>
    <edge id=":1094262599_w0" function="walkingarea">
        <lane id=":1094262599_w0_0" index="0" allow="pedestrian" speed="1.00" length="2.93" width="4.00" shape="966.60,4876.83 966.63,4876.93 967.17,4878.86 969.05,4879.89 970.96,4879.31 970.65,4878.27 970.10,4877.50 969.43,4876.97 968.62,4876.68 967.68,4876.64"/>
    </edge>
    <edge id=":1094262599_w1" function="walkingarea">
        <lane id=":1094262599_w1_0" index="0" allow="pedestrian" speed="1.00" length="2.54" width="4.00" shape="977.37,4877.36 979.28,4876.77 977.16,4875.60 976.38,4873.76 976.33,4873.65 976.07,4874.01 976.11,4874.59 976.35,4875.31 976.70,4876.08 977.04,4876.80"/>
    </edge>
    <edge id=":1094262599_w2" function="walkingarea">
        <lane id=":1094262599_w2_0" index="0" allow="pedestrian" speed="1.00" length="5.64" width="4.00" shape="973.70,4867.62 972.92,4865.78 964.29,4868.55 964.83,4870.48 966.78,4870.05 968.20,4869.68 969.37,4869.36 970.53,4868.99 971.90,4868.47"/>
    </edge>
    <edge id=":1094262643_0" function="internal">
        <lane id=":1094262643_0_0" index="0" disallow="tram rail_urban rail rail_electric pedestrian ship" speed="13.89" length="13.55" shape="801.95,4927.98 800.55,4914.50"/>
    </edge>
    <edge id=":1094262643_1" function="internal">
        <lane id=":1094262643_1_0" index="0" disallow="tram rail_urban rail rail_electric pedestrian ship" speed="13.89" length="5.93" shape="801.95,4927.98 802.14,4924.17 803.07,4922.27"/>
    </edge>
    <edge id=":1094262643_2" function="internal">
        <lane id=":1094262643_2_0" index="0" disallow="tram rail_urban rail rail_electric pedestrian ship" speed="13.89" length="2.41" shape="801.95,4927.98 802.66,4926.67 803.44,4926.19"/>
    </edge>
    <edge id=":1094262643_9" function="internal">
        <lane id=":1094262643_9_0" index="0" speed="13.89" length="7.96" shape="803.07,4922.27 803.51,4921.36 806.06,4919.55 809.80,4918.75"/>
    </edge>
    <edge id=":1094262643_10" function="internal">
        <lane id=":1094262643_10_0" index="0" speed="13.89" length="2.41" shape="803.44,4926.19 804.30,4926.52 805.24,4927.67"/>
    </edge>
    <edge id=":1094262643_3" function="internal">
        <lane id=":1094262643_3_0" index="0" disallow="tram rail_urban rail rail_electric pedestrian ship" speed="13.89" length="8.47" shape="810.02,4922.04 807.75,4922.53 806.19,4923.63 805.35,4925.35 805.24,4927.67"/>
    </edge>
    <edge id=":1094262643_4" function="internal">
        <lane id=":1094262643_4_0" index="0" disallow="tram rail_urban rail rail_electric pedestrian ship" speed="13.89" length="13.67" shape="810.02,4922.04 806.23,4921.79 803.39,4920.45 801.49,4918.02 800.55,4914.50"/>
    </edge>
    <edge id=":1094262643_5" function="internal">
        <lane id=":1094262643_5_0" index="0" disallow="tram rail_urban rail rail_electric pedestrian ship" speed="13.89" length="4.82" shape="810.02,4922.04 808.73,4921.30 808.26,4920.51 808.62,4919.66 809.80,4918.75"/>
    </edge>
    <edge id=":1094262643_6" function="internal">
        <lane id=":1094262643_6_0" index="0" disallow="tram rail_urban rail rail_electric pedestrian ship" speed="13.89" length="4.28" shape="803.82,4914.12 804.42,4916.29 805.61,4917.78 805.72,4917.83"/>
    </edge>
    <edge id=":1094262643_7" function="internal">
        <lane id=":1094262643_7_0" index="0" disallow="tram rail_urban rail rail_electric pedestrian ship" speed="13.89" length="13.62" shape="803.82,4914.12 805.24,4927.67"/>
    </edge>
    <edge id=":1094262643_8" function="internal">